################################################################################
##################################    Init    ##################################
################################################################################
units           real
atom_style      full
pair_style      lj/cut/coul/long 12.0  12.0
kspace_style    pppm 1e-4
bond_style      harmonic
angle_style     harmonic
dihedral_style  harmonic
improper_style  umbrella
special_bonds   dreiding
pair_modify     mix arithmetic
read_data       temp.lmps
  orthogonal box = (-8.96644 -8.96644 -8.96644) to (8.96644 8.96644 8.96644)
  reading atoms ...
  30 atoms
  reading velocities ...
  30 velocities
  scanning bonds ...
  scanning angles ...
  scanning dihedrals ...
  scanning impropers ...
  reading bonds ...
  29 bonds
  reading angles ...
  44 angles
  reading dihedrals ...
  58 dihedrals
  reading impropers ...
  10 impropers
################################################################################

timestep        1
fix             pysimm_md all nve/limit 0.1
run             2000
PPPM initialization ...
  G vector (1/distance) = 0.114644
  grid = 2 2 2
  stencil order = 5
  estimated absolute RMS force accuracy = 0.0148469
  estimated relative force accuracy = 4.4711e-05
  3d grid and FFT values/proc = 343 8
  update every 1 steps, delay 10 steps, check yes
Step Temp E_pair E_mol TotEng Press
0    10.888385    4419139.4    4691.4438    4423831.8 2.1014542e+08
Loop time of 0.100278 on 4 procs for 2000 steps with 30 atoms

unfix pysimm_md
min_style fire
minimize 0.001 0.001 10000 100000
PPPM initialization ...
  G vector (1/distance) = 0.114644
  grid = 2 2 2
  stencil order = 5
  estimated absolute RMS force accuracy = 0.0148469
  estimated relative force accuracy = 4.4711e-05
  3d grid and FFT values/proc = 343 8
Step Temp E_pair E_mol TotEng Press
2000            0    29.864409    57.949486    87.813895    729.30852
Loop time of 0.00328598 on 4 procs for 44 steps with 30 atoms

Minimization stats:
  Stopping criterion = energy tolerance
  Energy initial, next-to-last, final =
  Force two-norm initial, final = 279.533 58.5718
  Force max component initial, final = 84.1093 15.1687
  Final line search alpha, max atom move = 0 0
  Iterations, force evaluations = 44 44

write_dump all custom pysimm.dump.tmp id q x y z vx vy vz
quit

################################################################################
##################################    Init    ##################################
################################################################################
units           real
atom_style      full
pair_style      lj/cut/coul/long 12.0  12.0
kspace_style    pppm 1e-4
bond_style      harmonic
angle_style     harmonic
dihedral_style  harmonic
improper_style  umbrella
special_bonds   dreiding
pair_modify     mix arithmetic
read_data       temp.lmps
  orthogonal box = (-8.96644 -8.96644 -8.96644) to (8.96644 8.96644 8.96644)
  reading atoms ...
  44 atoms
  reading velocities ...
  44 velocities
  scanning bonds ...
  scanning angles ...
  scanning dihedrals ...
  scanning impropers ...
  reading bonds ...
  41 bonds
  reading angles ...
  59 angles
  reading dihedrals ...
  74 dihedrals
  reading impropers ...
  14 impropers
################################################################################

timestep        1
fix             pysimm_md all nve/limit 0.1
run             2000
PPPM initialization ...
  G vector (1/distance) = 0.114648
  grid = 2 2 2
  stencil order = 5
  estimated absolute RMS force accuracy = 0.0180882
  estimated relative force accuracy = 5.44721e-05
  3d grid and FFT values/proc = 343 8
  update every 1 steps, delay 10 steps, check yes
Step Temp E_pair E_mol TotEng Press
0      63.1609    2108898.9    16.203266    2108923.2 1.0032452e+08
Loop time of 0.164273 on 4 procs for 2000 steps with 44 atoms

unfix pysimm_md
min_style fire
minimize 0.001 0.001 10000 100000
PPPM initialization ...
  G vector (1/distance) = 0.114648
  grid = 2 2 2
  stencil order = 5
  estimated absolute RMS force accuracy = 0.0180882
  estimated relative force accuracy = 5.44721e-05
  3d grid and FFT values/proc = 343 8
Step Temp E_pair E_mol TotEng Press
2000            0    34.024987    86.712941    120.73793   -2172.9151
Loop time of 0.00701012 on 4 procs for 57 steps with 44 atoms

Minimization stats:
  Stopping criterion = energy tolerance
  Energy initial, next-to-last, final =
  Force two-norm initial, final = 345.094 14.1427
  Force max component initial, final = 108.79 3.81074
  Final line search alpha, max atom move = 0 0
  Iterations, force evaluations = 57 57

write_dump all custom pysimm.dump.tmp id q x y z vx vy vz
quit

################################################################################
##################################    Init    ##################################
################################################################################
units           real
atom_style      full
pair_style      lj/cut/coul/long 12.0  12.0
kspace_style    pppm 1e-4
bond_style      harmonic
angle_style     harmonic
dihedral_style  harmonic
improper_style  umbrella
special_bonds   dreiding
pair_modify     mix arithmetic
read_data       temp.lmps
  orthogonal box = (-8.96644 -8.96644 -8.96644) to (8.96644 8.96644 8.96644)
  reading atoms ...
  58 atoms
  reading velocities ...
  58 velocities
  scanning bonds ...
  scanning angles ...
  scanning dihedrals ...
  scanning impropers ...
  reading bonds ...
  53 bonds
  reading angles ...
  74 angles
  reading dihedrals ...
  90 dihedrals
  reading impropers ...
  18 impropers
################################################################################

timestep        1
fix             pysimm_md all nve/limit 0.1
run             2000
PPPM initialization ...
  G vector (1/distance) = 0.114642
  grid = 2 2 2
  stencil order = 5
  estimated absolute RMS force accuracy = 0.0208275
  estimated relative force accuracy = 6.27213e-05
  3d grid and FFT values/proc = 343 8
  update every 1 steps, delay 10 steps, check yes
Step Temp E_pair E_mol TotEng Press
0     7.036532 1.2254064e+11    9.9462542 1.2254064e+11 5.8279347e+12
Loop time of 0.245341 on 4 procs for 2000 steps with 58 atoms

unfix pysimm_md
min_style fire
minimize 0.001 0.001 10000 100000
PPPM initialization ...
  G vector (1/distance) = 0.114642
  grid = 2 2 2
  stencil order = 5
  estimated absolute RMS force accuracy = 0.0208275
  estimated relative force accuracy = 6.27213e-05
  3d grid and FFT values/proc = 343 8
Step Temp E_pair E_mol TotEng Press
2000            0    37.572713    60.868864    98.441577   -926.47736
Loop time of 0.00755844 on 4 procs for 40 steps with 58 atoms

Minimization stats:
  Stopping criterion = energy tolerance
  Energy initial, next-to-last, final =
  Force two-norm initial, final = 291.391 39.3628
  Force max component initial, final = 85.6493 17.4105
  Final line search alpha, max atom move = 0 0
  Iterations, force evaluations = 40 40

write_dump all custom pysimm.dump.tmp id q x y z vx vy vz
quit

################################################################################
##################################    Init    ##################################
################################################################################
units           real
atom_style      full
pair_style      lj/cut/coul/long 12.0  12.0
kspace_style    pppm 1e-4
bond_style      harmonic
angle_style     harmonic
dihedral_style  harmonic
improper_style  umbrella
special_bonds   dreiding
pair_modify     mix arithmetic
read_data       temp.lmps
  orthogonal box = (-8.96644 -8.96644 -8.96644) to (8.96644 8.96644 8.96644)
  reading atoms ...
  72 atoms
  reading velocities ...
  72 velocities
  scanning bonds ...
  scanning angles ...
  scanning dihedrals ...
  scanning impropers ...
  reading bonds ...
  65 bonds
  reading angles ...
  89 angles
  reading dihedrals ...
  106 dihedrals
  reading impropers ...
  22 impropers
################################################################################

timestep        1
fix             pysimm_md all nve/limit 0.1
run             2000
PPPM initialization ...
  G vector (1/distance) = 0.114642
  grid = 2 2 2
  stencil order = 5
  estimated absolute RMS force accuracy = 0.0232482
  estimated relative force accuracy = 7.00112e-05
  3d grid and FFT values/proc = 343 8
  update every 1 steps, delay 10 steps, check yes
Step Temp E_pair E_mol TotEng Press
0    11.354947     353.2876    12.755676    368.44641    15239.554
Loop time of 0.333276 on 4 procs for 2000 steps with 72 atoms

unfix pysimm_md
min_style fire
minimize 0.001 0.001 10000 100000
PPPM initialization ...
  G vector (1/distance) = 0.114642
  grid = 2 2 2
  stencil order = 5
  estimated absolute RMS force accuracy = 0.0232482
  estimated relative force accuracy = 7.00112e-05
  3d grid and FFT values/proc = 343 8
Step Temp E_pair E_mol TotEng Press
2000            0    47.285381    37.054441    84.339823   -202.54421
Loop time of 0.0121105 on 4 procs for 44 steps with 72 atoms

Minimization stats:
  Stopping criterion = energy tolerance
  Energy initial, next-to-last, final =
  Force two-norm initial, final = 227.097 43.5487
  Force max component initial, final = 73.6818 16.6008
  Final line search alpha, max atom move = 0 0
  Iterations, force evaluations = 44 44

write_dump all custom pysimm.dump.tmp id q x y z vx vy vz
quit

################################################################################
##################################    Init    ##################################
################################################################################
units           real
atom_style      full
pair_style      lj/cut/coul/long 12.0  12.0
kspace_style    pppm 1e-4
bond_style      harmonic
angle_style     harmonic
dihedral_style  harmonic
improper_style  umbrella
special_bonds   dreiding
pair_modify     mix arithmetic
read_data       temp.lmps
  orthogonal box = (-8.96644 -8.96644 -8.96644) to (8.96644 8.96644 8.96644)
  reading atoms ...
  86 atoms
  reading velocities ...
  86 velocities
  scanning bonds ...
  scanning angles ...
  scanning dihedrals ...
  scanning impropers ...
  reading bonds ...
  77 bonds
  reading angles ...
  104 angles
  reading dihedrals ...
  122 dihedrals
  reading impropers ...
  26 impropers
################################################################################

timestep        1
fix             pysimm_md all nve/limit 0.1
run             2000
PPPM initialization ...
  G vector (1/distance) = 0.114647
  grid = 2 2 2
  stencil order = 5
  estimated absolute RMS force accuracy = 0.0254422
  estimated relative force accuracy = 7.66184e-05
  3d grid and FFT values/proc = 343 8
  update every 1 steps, delay 10 steps, check yes
Step Temp E_pair E_mol TotEng Press
0    18.378183    169.87177    10.896219    185.42445    6032.4194
Loop time of 0.455005 on 4 procs for 2000 steps with 86 atoms

unfix pysimm_md
min_style fire
minimize 0.001 0.001 10000 100000
PPPM initialization ...
  G vector (1/distance) = 0.114647
  grid = 2 2 2
  stencil order = 5
  estimated absolute RMS force accuracy = 0.0254422
  estimated relative force accuracy = 7.66184e-05
  3d grid and FFT values/proc = 343 8
Step Temp E_pair E_mol TotEng Press
2000            0     46.56682    18.737107    65.303926   -859.10431
Loop time of 0.00964467 on 4 procs for 26 steps with 86 atoms

Minimization stats:
  Stopping criterion = energy tolerance
  Energy initial, next-to-last, final =
  Force two-norm initial, final = 136.791 32.6876
  Force max component initial, final = 33.3007 8.87071
  Final line search alpha, max atom move = 0 0
  Iterations, force evaluations = 26 26

write_dump all custom pysimm.dump.tmp id q x y z vx vy vz
quit

################################################################################
##################################    Init    ##################################
################################################################################
units           real
atom_style      full
pair_style      lj/cut/coul/long 12.0  12.0
kspace_style    pppm 1e-4
bond_style      harmonic
angle_style     harmonic
dihedral_style  harmonic
improper_style  umbrella
special_bonds   dreiding
pair_modify     mix arithmetic
read_data       temp.lmps
  orthogonal box = (-8.96644 -8.96644 -8.96644) to (8.96644 8.96644 8.96644)
  reading atoms ...
  100 atoms
  reading velocities ...
  100 velocities
  scanning bonds ...
  scanning angles ...
  scanning dihedrals ...
  scanning impropers ...
  reading bonds ...
  89 bonds
  reading angles ...
  119 angles
  reading dihedrals ...
  138 dihedrals
  reading impropers ...
  30 impropers
################################################################################

timestep        1
fix             pysimm_md all nve/limit 0.1
run             2000
PPPM initialization ...
  G vector (1/distance) = 0.114645
  grid = 2 2 2
  stencil order = 5
  estimated absolute RMS force accuracy = 0.0274583
  estimated relative force accuracy = 8.26899e-05
  3d grid and FFT values/proc = 343 8
  update every 1 steps, delay 10 steps, check yes
Step Temp E_pair E_mol TotEng Press
0    7.1600507    179963.25    10.939965     179976.3    8564461.1
Loop time of 0.607369 on 4 procs for 2000 steps with 100 atoms

unfix pysimm_md
min_style fire
minimize 0.001 0.001 10000 100000
PPPM initialization ...
  G vector (1/distance) = 0.114645
  grid = 2 2 2
  stencil order = 5
  estimated absolute RMS force accuracy = 0.0274583
  estimated relative force accuracy = 8.26899e-05
  3d grid and FFT values/proc = 343 8
Step Temp E_pair E_mol TotEng Press
2000            0    68.716042    116.77094    185.48699   -3469.7678
Loop time of 0.0245868 on 4 procs for 56 steps with 100 atoms

Minimization stats:
  Stopping criterion = energy tolerance
  Energy initial, next-to-last, final =
  Force two-norm initial, final = 502.826 14.0029
  Force max component initial, final = 170.119 4.08327
  Final line search alpha, max atom move = 0 0
  Iterations, force evaluations = 56 56

write_dump all custom pysimm.dump.tmp id q x y z vx vy vz
quit

################################################################################
##################################    Init    ##################################
################################################################################
units           real
atom_style      full
pair_style      lj/cut/coul/long 12.0  12.0
kspace_style    pppm 1e-4
bond_style      harmonic
angle_style     harmonic
dihedral_style  harmonic
improper_style  umbrella
special_bonds   dreiding
pair_modify     mix arithmetic
read_data       temp.lmps
  orthogonal box = (-8.96644 -8.96644 -8.96644) to (8.96644 8.96644 8.96644)
  reading atoms ...
  114 atoms
  reading velocities ...
  114 velocities
  scanning bonds ...
  scanning angles ...
  scanning dihedrals ...
  scanning impropers ...
  reading bonds ...
  101 bonds
  reading angles ...
  134 angles
  reading dihedrals ...
  154 dihedrals
  reading impropers ...
  34 impropers
################################################################################

timestep        1
fix             pysimm_md all nve/limit 0.1
run             2000
PPPM initialization ...
  G vector (1/distance) = 0.114643
  grid = 2 2 2
  stencil order = 5
  estimated absolute RMS force accuracy = 0.0293364
  estimated relative force accuracy = 8.83456e-05
  3d grid and FFT values/proc = 343 8
  update every 1 steps, delay 10 steps, check yes
Step Temp E_pair E_mol TotEng Press
0    2.6325099    14665.152    10.636695    14676.675    698159.24
Loop time of 0.782524 on 4 procs for 2000 steps with 114 atoms

unfix pysimm_md
min_style fire
minimize 0.001 0.001 10000 100000
PPPM initialization ...
  G vector (1/distance) = 0.114643
  grid = 2 2 2
  stencil order = 5
  estimated absolute RMS force accuracy = 0.0293364
  estimated relative force accuracy = 8.83456e-05
  3d grid and FFT values/proc = 343 8
Step Temp E_pair E_mol TotEng Press
2000            0      84.6753    146.17882    230.85412    94.785213
Loop time of 0.0243167 on 4 procs for 44 steps with 114 atoms

Minimization stats:
  Stopping criterion = energy tolerance
  Energy initial, next-to-last, final =
  Force two-norm initial, final = 469.065 39.9928
  Force max component initial, final = 124.109 10.5248
  Final line search alpha, max atom move = 0 0
  Iterations, force evaluations = 44 44

write_dump all custom pysimm.dump.tmp id q x y z vx vy vz
quit

################################################################################
##################################    Init    ##################################
################################################################################
units           real
atom_style      full
pair_style      lj/cut/coul/long 12.0  12.0
kspace_style    pppm 1e-4
bond_style      harmonic
angle_style     harmonic
dihedral_style  harmonic
improper_style  umbrella
special_bonds   dreiding
pair_modify     mix arithmetic
read_data       temp.lmps
  orthogonal box = (-8.96644 -8.96644 -8.96644) to (8.96644 8.96644 8.96644)
  reading atoms ...
  128 atoms
  reading velocities ...
  128 velocities
  scanning bonds ...
  scanning angles ...
  scanning dihedrals ...
  scanning impropers ...
  reading bonds ...
  113 bonds
  reading angles ...
  149 angles
  reading dihedrals ...
  170 dihedrals
  reading impropers ...
  38 impropers
################################################################################

timestep        1
fix             pysimm_md all nve/limit 0.1
run             2000
PPPM initialization ...
  G vector (1/distance) = 0.114643
  grid = 2 2 2
  stencil order = 5
  estimated absolute RMS force accuracy = 0.0311015
  estimated relative force accuracy = 9.36611e-05
  3d grid and FFT values/proc = 343 8
  update every 1 steps, delay 10 steps, check yes
Step Temp E_pair E_mol TotEng Press
0    16.642539 1.5968702e+11     17.27392 1.5968702e+11 7.5945863e+12
Loop time of 0.948956 on 4 procs for 2000 steps with 128 atoms

unfix pysimm_md
min_style fire
minimize 0.001 0.001 10000 100000
PPPM initialization ...
  G vector (1/distance) = 0.114643
  grid = 2 2 2
  stencil order = 5
  estimated absolute RMS force accuracy = 0.0311015
  estimated relative force accuracy = 9.36611e-05
  3d grid and FFT values/proc = 343 8
Step Temp E_pair E_mol TotEng Press
2000            0    79.334084    173.23795    252.57203   -2548.1917
Loop time of 0.0257596 on 4 procs for 39 steps with 128 atoms

Minimization stats:
  Stopping criterion = energy tolerance
  Energy initial, next-to-last, final =
  Force two-norm initial, final = 494.638 68.0102
  Force max component initial, final = 108.352 20.8713
  Final line search alpha, max atom move = 0 0
  Iterations, force evaluations = 39 39

write_dump all custom pysimm.dump.tmp id q x y z vx vy vz
quit

################################################################################
##################################    Init    ##################################
################################################################################
units           real
atom_style      full
pair_style      lj/cut/coul/long 12.0  12.0
kspace_style    pppm 1e-4
bond_style      harmonic
angle_style     harmonic
dihedral_style  harmonic
improper_style  umbrella
special_bonds   dreiding
pair_modify     mix arithmetic
read_data       temp.lmps
  orthogonal box = (-8.96644 -8.96644 -8.96644) to (8.96644 8.96644 8.96644)
  reading atoms ...
  142 atoms
  reading velocities ...
  142 velocities
  scanning bonds ...
  scanning angles ...
  scanning dihedrals ...
  scanning impropers ...
  reading bonds ...
  125 bonds
  reading angles ...
  164 angles
  reading dihedrals ...
  186 dihedrals
  reading impropers ...
  42 impropers
################################################################################

timestep        1
fix             pysimm_md all nve/limit 0.1
run             2000
PPPM initialization ...
  G vector (1/distance) = 0.114642
  grid = 2 2 2
  stencil order = 5
  estimated absolute RMS force accuracy = 0.0327718
  estimated relative force accuracy = 9.86912e-05
  3d grid and FFT values/proc = 343 8
  update every 1 steps, delay 10 steps, check yes
Step Temp E_pair E_mol TotEng Press
0    23.505031    76.649569    20.866728    107.39533    483.02296
Loop time of 1.02272 on 4 procs for 2000 steps with 142 atoms

unfix pysimm_md
min_style fire
minimize 0.001 0.001 10000 100000
PPPM initialization ...
  G vector (1/distance) = 0.114642
  grid = 2 2 2
  stencil order = 5
  estimated absolute RMS force accuracy = 0.0327718
  estimated relative force accuracy = 9.86912e-05
  3d grid and FFT values/proc = 343 8
Step Temp E_pair E_mol TotEng Press
2000            0    59.229525     15.93099    75.160515    612.15686
Loop time of 0.0128079 on 4 procs for 13 steps with 142 atoms

Minimization stats:
  Stopping criterion = energy tolerance
  Energy initial, next-to-last, final =
  Force two-norm initial, final = 92.1982 41.8266
  Force max component initial, final = 16.9245 11.158
  Final line search alpha, max atom move = 0 0
  Iterations, force evaluations = 13 13

write_dump all custom pysimm.dump.tmp id q x y z vx vy vz
quit

################################################################################
##################################    Init    ##################################
################################################################################
units           real
atom_style      full
pair_style      lj/cut/coul/long 12.0  12.0
kspace_style    pppm 1e-4
bond_style      harmonic
angle_style     harmonic
dihedral_style  harmonic
improper_style  umbrella
special_bonds   dreiding
pair_modify     mix arithmetic
read_data       temp.lmps
  orthogonal box = (-14.8833 -14.8833 -14.8833) to (14.8833 14.8833 14.8833)
  reading atoms ...
  96 atoms
  reading velocities ...
  96 velocities
  scanning bonds ...
  scanning angles ...
  scanning dihedrals ...
  scanning impropers ...
  reading bonds ...
  105 bonds
  reading angles ...
  204 angles
  reading dihedrals ...
  347 dihedrals
  reading impropers ...
  24 impropers
################################################################################

timestep        1
fix             pysimm_md all nve/limit 0.1
run             2000
PPPM initialization ...
  G vector (1/distance) = 0.0441253
  grid = 1 1 1
  stencil order = 5
  estimated absolute RMS force accuracy = 0.0408131
  estimated relative force accuracy = 0.000122907
  3d grid and FFT values/proc = 216 1
  update every 1 steps, delay 10 steps, check yes
Step Temp E_pair E_mol TotEng Press
0            0    2620860.7    1212.6792    2622073.4     27254284
Loop time of 0.469928 on 4 procs for 2000 steps with 96 atoms

unfix pysimm_md
min_style fire
minimize 0.001 0.001 10000 100000
PPPM initialization ...
  G vector (1/distance) = 0.0441253
  grid = 1 1 1
  stencil order = 5
  estimated absolute RMS force accuracy = 0.0408131
  estimated relative force accuracy = 0.000122907
  3d grid and FFT values/proc = 216 1
Step Temp E_pair E_mol TotEng Press
2000            0     114.3601    564.02602    678.38612   -579.71436
Loop time of 0.00835134 on 4 procs for 24 steps with 96 atoms

Minimization stats:
  Stopping criterion = energy tolerance
  Energy initial, next-to-last, final =
  Force two-norm initial, final = 613.601 163.127
  Force max component initial, final = 139.321 47.2212
  Final line search alpha, max atom move = 0 0
  Iterations, force evaluations = 24 24

write_dump all custom pysimm.dump.tmp id q x y z vx vy vz
quit

################################################################################
##################################    Init    ##################################
################################################################################
units           real
atom_style      full
pair_style      lj/cut/coul/long 12.0  12.0
kspace_style    pppm 1e-4
bond_style      harmonic
angle_style     harmonic
dihedral_style  harmonic
improper_style  umbrella
special_bonds   dreiding
pair_modify     mix arithmetic
read_data       temp.lmps
  orthogonal box = (-14.8833 -14.8833 -14.8833) to (14.8833 14.8833 14.8833)
  reading atoms ...
  143 atoms
  reading velocities ...
  143 velocities
  scanning bonds ...
  scanning angles ...
  scanning dihedrals ...
  scanning impropers ...
  reading bonds ...
  157 bonds
  reading angles ...
  306 angles
  reading dihedrals ...
  525 dihedrals
  reading impropers ...
  36 impropers
################################################################################

timestep        1
fix             pysimm_md all nve/limit 0.1
run             2000
PPPM initialization ...
  G vector (1/distance) = 0.0793073
  grid = 2 2 2
  stencil order = 5
  estimated absolute RMS force accuracy = 0.0263786
  estimated relative force accuracy = 7.94384e-05
  3d grid and FFT values/proc = 343 8
  update every 1 steps, delay 10 steps, check yes
Step Temp E_pair E_mol TotEng Press
0     175.4038     11444.65     1356.218    12875.112    115987.44
Loop time of 0.82085 on 4 procs for 2000 steps with 143 atoms

unfix pysimm_md
min_style fire
minimize 0.001 0.001 10000 100000
PPPM initialization ...
  G vector (1/distance) = 0.0793073
  grid = 2 2 2
  stencil order = 5
  estimated absolute RMS force accuracy = 0.0263786
  estimated relative force accuracy = 7.94384e-05
  3d grid and FFT values/proc = 343 8
Step Temp E_pair E_mol TotEng Press
2000            0     163.7242    739.55685    903.28105   -1055.7251
Loop time of 0.014718 on 4 procs for 25 steps with 143 atoms

Minimization stats:
  Stopping criterion = energy tolerance
  Energy initial, next-to-last, final =
  Force two-norm initial, final = 782.174 215.992
  Force max component initial, final = 178.79 45.5404
  Final line search alpha, max atom move = 0 0
  Iterations, force evaluations = 25 25

write_dump all custom pysimm.dump.tmp id q x y z vx vy vz
quit

################################################################################
##################################    Init    ##################################
################################################################################
units           real
atom_style      full
pair_style      lj/cut/coul/long 12.0  12.0
kspace_style    pppm 1e-4
bond_style      harmonic
angle_style     harmonic
dihedral_style  harmonic
improper_style  umbrella
special_bonds   dreiding
pair_modify     mix arithmetic
read_data       temp.lmps
  orthogonal box = (-14.8833 -14.8833 -14.8833) to (14.8833 14.8833 14.8833)
  reading atoms ...
  190 atoms
  reading velocities ...
  190 velocities
  scanning bonds ...
  scanning angles ...
  scanning dihedrals ...
  scanning impropers ...
  reading bonds ...
  209 bonds
  reading angles ...
  408 angles
  reading dihedrals ...
  703 dihedrals
  reading impropers ...
  48 impropers
################################################################################

timestep        1
fix             pysimm_md all nve/limit 0.1
run             2000
PPPM initialization ...
  G vector (1/distance) = 0.0793073
  grid = 2 2 2
  stencil order = 5
  estimated absolute RMS force accuracy = 0.0302463
  estimated relative force accuracy = 9.10857e-05
  3d grid and FFT values/proc = 343 8
  update every 1 steps, delay 10 steps, check yes
Step Temp E_pair E_mol TotEng Press
0    135.76295     101479.7     1479.277    103035.46    1052425.7
Loop time of 1.1899 on 4 procs for 2000 steps with 190 atoms

unfix pysimm_md
min_style fire
minimize 0.001 0.001 10000 100000
PPPM initialization ...
  G vector (1/distance) = 0.0793073
  grid = 2 2 2
  stencil order = 5
  estimated absolute RMS force accuracy = 0.0302463
  estimated relative force accuracy = 9.10857e-05
  3d grid and FFT values/proc = 343 8
Step Temp E_pair E_mol TotEng Press
2000            0    175.38146    878.83994    1054.2214   -1093.9632
Loop time of 0.0239777 on 4 procs for 25 steps with 190 atoms

Minimization stats:
  Stopping criterion = energy tolerance
  Energy initial, next-to-last, final =
  Force two-norm initial, final = 746.721 210.315
  Force max component initial, final = 137.586 42.3827
  Final line search alpha, max atom move = 0 0
  Iterations, force evaluations = 25 25

write_dump all custom pysimm.dump.tmp id q x y z vx vy vz
quit

################################################################################
##################################    Init    ##################################
################################################################################
units           real
atom_style      full
pair_style      lj/cut/coul/long 12.0  12.0
kspace_style    pppm 1e-4
bond_style      harmonic
angle_style     harmonic
dihedral_style  harmonic
improper_style  umbrella
special_bonds   dreiding
pair_modify     mix arithmetic
read_data       temp.lmps
  orthogonal box = (-14.8833 -14.8833 -14.8833) to (14.8833 14.8833 14.8833)
  reading atoms ...
  237 atoms
  reading velocities ...
  237 velocities
  scanning bonds ...
  scanning angles ...
  scanning dihedrals ...
  scanning impropers ...
  reading bonds ...
  261 bonds
  reading angles ...
  510 angles
  reading dihedrals ...
  881 dihedrals
  reading impropers ...
  60 impropers
################################################################################

timestep        1
fix             pysimm_md all nve/limit 0.1
run             2000
PPPM initialization ...
  G vector (1/distance) = 0.0793074
  grid = 2 2 2
  stencil order = 5
  estimated absolute RMS force accuracy = 0.0336731
  estimated relative force accuracy = 0.000101405
  3d grid and FFT values/proc = 343 8
  update every 1 steps, delay 10 steps, check yes
Step Temp E_pair E_mol TotEng Press
0    132.61098 2.8536827e+08    1576.6545 2.8536994e+08 2.967609e+09
Loop time of 1.60224 on 4 procs for 2000 steps with 237 atoms

unfix pysimm_md
min_style fire
minimize 0.001 0.001 10000 100000
PPPM initialization ...
  G vector (1/distance) = 0.0793074
  grid = 2 2 2
  stencil order = 5
  estimated absolute RMS force accuracy = 0.0336731
  estimated relative force accuracy = 0.000101405
  3d grid and FFT values/proc = 343 8
Step Temp E_pair E_mol TotEng Press
2000            0    271.82473    1163.6193     1435.444   -154.96132
Loop time of 0.0443644 on 4 procs for 38 steps with 237 atoms

Minimization stats:
  Stopping criterion = energy tolerance
  Energy initial, next-to-last, final =
  Force two-norm initial, final = 894.599 144.603
  Force max component initial, final = 126.696 28.1139
  Final line search alpha, max atom move = 0 0
  Iterations, force evaluations = 38 38

write_dump all custom pysimm.dump.tmp id q x y z vx vy vz
quit

################################################################################
##################################    Init    ##################################
################################################################################
units           real
atom_style      full
pair_style      lj/cut/coul/long 12.0  12.0
kspace_style    pppm 1e-4
bond_style      harmonic
angle_style     harmonic
dihedral_style  harmonic
improper_style  umbrella
special_bonds   dreiding
pair_modify     mix arithmetic
read_data       temp.lmps
  orthogonal box = (-14.8833 -14.8833 -14.8833) to (14.8833 14.8833 14.8833)
  reading atoms ...
  284 atoms
  reading velocities ...
  284 velocities
  scanning bonds ...
  scanning angles ...
  scanning dihedrals ...
  scanning impropers ...
  reading bonds ...
  313 bonds
  reading angles ...
  612 angles
  reading dihedrals ...
  1059 dihedrals
  reading impropers ...
  72 impropers
################################################################################

timestep        1
fix             pysimm_md all nve/limit 0.1
run             2000
PPPM initialization ...
  G vector (1/distance) = 0.10706
  grid = 3 3 3
  stencil order = 5
  estimated absolute RMS force accuracy = 0.0174653
  estimated relative force accuracy = 5.25961e-05
  3d grid and FFT values/proc = 512 27
  update every 1 steps, delay 10 steps, check yes
Step Temp E_pair E_mol TotEng Press
0     66.59666 3.0394048e+08    1477.2963 3.0394201e+08 3.160741e+09
Loop time of 2.28132 on 4 procs for 2000 steps with 284 atoms

unfix pysimm_md
min_style fire
minimize 0.001 0.001 10000 100000
PPPM initialization ...
  G vector (1/distance) = 0.10706
  grid = 3 3 3
  stencil order = 5
  estimated absolute RMS force accuracy = 0.0174653
  estimated relative force accuracy = 5.25961e-05
  3d grid and FFT values/proc = 512 27
Step Temp E_pair E_mol TotEng Press
2000            0      289.874    1212.1574    1502.0314   -1056.4881
Loop time of 0.0439537 on 4 procs for 25 steps with 284 atoms

Minimization stats:
  Stopping criterion = energy tolerance
  Energy initial, next-to-last, final =
  Force two-norm initial, final = 822.638 218.147
  Force max component initial, final = 144.643 37.4546
  Final line search alpha, max atom move = 0 0
  Iterations, force evaluations = 25 25

write_dump all custom pysimm.dump.tmp id q x y z vx vy vz
quit

################################################################################
##################################    Init    ##################################
################################################################################
units           real
atom_style      full
pair_style      lj/cut/coul/long 12.0  12.0
kspace_style    pppm 1e-4
bond_style      harmonic
angle_style     harmonic
dihedral_style  harmonic
improper_style  umbrella
special_bonds   dreiding
pair_modify     mix arithmetic
read_data       temp.lmps
  orthogonal box = (-14.8833 -14.8833 -14.8833) to (14.8833 14.8833 14.8833)
  reading atoms ...
  331 atoms
  reading velocities ...
  331 velocities
  scanning bonds ...
  scanning angles ...
  scanning dihedrals ...
  scanning impropers ...
  reading bonds ...
  365 bonds
  reading angles ...
  714 angles
  reading dihedrals ...
  1237 dihedrals
  reading impropers ...
  84 impropers
################################################################################

timestep        1
fix             pysimm_md all nve/limit 0.1
run             2000
PPPM initialization ...
  G vector (1/distance) = 0.10706
  grid = 3 3 3
  stencil order = 5
  estimated absolute RMS force accuracy = 0.0188262
  estimated relative force accuracy = 5.66945e-05
  3d grid and FFT values/proc = 512 27
  update every 1 steps, delay 10 steps, check yes
Step Temp E_pair E_mol TotEng Press
0    106.79121 2.3861293e+11    1651.0859 2.3861293e+11 2.481361e+12
Loop time of 2.84948 on 4 procs for 2000 steps with 331 atoms

unfix pysimm_md
min_style fire
minimize 0.001 0.001 10000 100000
PPPM initialization ...
  G vector (1/distance) = 0.10706
  grid = 3 3 3
  stencil order = 5
  estimated absolute RMS force accuracy = 0.0188262
  estimated relative force accuracy = 5.66945e-05
  3d grid and FFT values/proc = 512 27
Step Temp E_pair E_mol TotEng Press
2000            0    360.91811    1292.3384    1653.2565     265.9667
Loop time of 0.0506306 on 4 procs for 23 steps with 331 atoms

Minimization stats:
  Stopping criterion = energy tolerance
  Energy initial, next-to-last, final =
  Force two-norm initial, final = 871.593 228.833
  Force max component initial, final = 112.351 27.3512
  Final line search alpha, max atom move = 0 0
  Iterations, force evaluations = 23 23

write_dump all custom pysimm.dump.tmp id q x y z vx vy vz
quit

################################################################################
##################################    Init    ##################################
################################################################################
units           real
atom_style      full
pair_style      lj/cut/coul/long 12.0  12.0
kspace_style    pppm 1e-4
bond_style      harmonic
angle_style     harmonic
dihedral_style  harmonic
improper_style  umbrella
special_bonds   dreiding
pair_modify     mix arithmetic
read_data       temp.lmps
  orthogonal box = (-14.8833 -14.8833 -14.8833) to (14.8833 14.8833 14.8833)
  reading atoms ...
  378 atoms
  reading velocities ...
  378 velocities
  scanning bonds ...
  scanning angles ...
  scanning dihedrals ...
  scanning impropers ...
  reading bonds ...
  417 bonds
  reading angles ...
  816 angles
  reading dihedrals ...
  1415 dihedrals
  reading impropers ...
  96 impropers
################################################################################

timestep        1
fix             pysimm_md all nve/limit 0.1
run             2000
PPPM initialization ...
  G vector (1/distance) = 0.10706
  grid = 3 3 3
  stencil order = 5
  estimated absolute RMS force accuracy = 0.0200952
  estimated relative force accuracy = 6.05161e-05
  3d grid and FFT values/proc = 512 27
  update every 1 steps, delay 10 steps, check yes
Step Temp E_pair E_mol TotEng Press
0    134.91333 3.0722882e+09    1840.4237 3.0722902e+09 3.1949241e+10
Loop time of 3.42368 on 4 procs for 2000 steps with 378 atoms

unfix pysimm_md
min_style fire
minimize 0.001 0.001 10000 100000
PPPM initialization ...
  G vector (1/distance) = 0.10706
  grid = 3 3 3
  stencil order = 5
  estimated absolute RMS force accuracy = 0.0200952
  estimated relative force accuracy = 6.05161e-05
  3d grid and FFT values/proc = 512 27
Step Temp E_pair E_mol TotEng Press
2000            0    371.22567    1587.4239    1958.6496   -2605.3705
Loop time of 0.0315354 on 4 procs for 13 steps with 378 atoms

Minimization stats:
  Stopping criterion = energy tolerance
  Energy initial, next-to-last, final =
  Force two-norm initial, final = 954.518 470.832
  Force max component initial, final = 167.836 81.9545
  Final line search alpha, max atom move = 0 0
  Iterations, force evaluations = 13 13

write_dump all custom pysimm.dump.tmp id q x y z vx vy vz
quit

################################################################################
##################################    Init    ##################################
################################################################################
units           real
atom_style      full
pair_style      lj/cut/coul/long 12.0  12.0
kspace_style    pppm 1e-4
bond_style      harmonic
angle_style     harmonic
dihedral_style  harmonic
improper_style  umbrella
special_bonds   dreiding
pair_modify     mix arithmetic
read_data       temp.lmps
  orthogonal box = (-14.8833 -14.8833 -14.8833) to (14.8833 14.8833 14.8833)
  reading atoms ...
  425 atoms
  reading velocities ...
  425 velocities
  scanning bonds ...
  scanning angles ...
  scanning dihedrals ...
  scanning impropers ...
  reading bonds ...
  469 bonds
  reading angles ...
  918 angles
  reading dihedrals ...
  1593 dihedrals
  reading impropers ...
  108 impropers
################################################################################

timestep        1
fix             pysimm_md all nve/limit 0.1
run             2000
PPPM initialization ...
  G vector (1/distance) = 0.10706
  grid = 3 3 3
  stencil order = 5
  estimated absolute RMS force accuracy = 0.0212887
  estimated relative force accuracy = 6.41102e-05
  3d grid and FFT values/proc = 512 27
  update every 1 steps, delay 10 steps, check yes
Step Temp E_pair E_mol TotEng Press
0    383.36359    6600722.2    2035.2972      6603242     68655510
Loop time of 3.94711 on 4 procs for 2000 steps with 425 atoms

unfix pysimm_md
min_style fire
minimize 0.001 0.001 10000 100000
PPPM initialization ...
  G vector (1/distance) = 0.10706
  grid = 3 3 3
  stencil order = 5
  estimated absolute RMS force accuracy = 0.0212887
  estimated relative force accuracy = 6.41102e-05
  3d grid and FFT values/proc = 512 27
Step Temp E_pair E_mol TotEng Press
2000            0    479.61848     1835.804    2315.4225   -1266.5697
Loop time of 0.0440104 on 4 procs for 13 steps with 425 atoms

Minimization stats:
  Stopping criterion = energy tolerance
  Energy initial, next-to-last, final =
  Force two-norm initial, final = 1050.11 524.127
  Force max component initial, final = 133.504 70.3387
  Final line search alpha, max atom move = 0 0
  Iterations, force evaluations = 13 13

write_dump all custom pysimm.dump.tmp id q x y z vx vy vz
quit

################################################################################
##################################    Init    ##################################
################################################################################
units           real
atom_style      full
pair_style      lj/cut/coul/long 12.0  12.0
kspace_style    pppm 1e-4
bond_style      harmonic
angle_style     harmonic
dihedral_style  harmonic
improper_style  umbrella
special_bonds   dreiding
pair_modify     mix arithmetic
read_data       temp.lmps
  orthogonal box = (-14.8833 -14.8833 -14.8833) to (14.8833 14.8833 14.8833)
  reading atoms ...
  472 atoms
  reading velocities ...
  472 velocities
  scanning bonds ...
  scanning angles ...
  scanning dihedrals ...
  scanning impropers ...
  reading bonds ...
  521 bonds
  reading angles ...
  1020 angles
  reading dihedrals ...
  1771 dihedrals
  reading impropers ...
  120 impropers
################################################################################

timestep        1
fix             pysimm_md all nve/limit 0.1
run             2000
PPPM initialization ...
  G vector (1/distance) = 0.10706
  grid = 3 3 3
  stencil order = 5
  estimated absolute RMS force accuracy = 0.0224187
  estimated relative force accuracy = 6.75133e-05
  3d grid and FFT values/proc = 512 27
  update every 1 steps, delay 10 steps, check yes
Step Temp E_pair E_mol TotEng Press
0      454.534 2.4004971e+09    2205.9507 2.4004999e+09 2.4963148e+10
Loop time of 4.64601 on 4 procs for 2000 steps with 472 atoms

unfix pysimm_md
min_style fire
minimize 0.001 0.001 10000 100000
PPPM initialization ...
  G vector (1/distance) = 0.10706
  grid = 3 3 3
  stencil order = 5
  estimated absolute RMS force accuracy = 0.0224187
  estimated relative force accuracy = 6.75133e-05
  3d grid and FFT values/proc = 512 27
Step Temp E_pair E_mol TotEng Press
2000            0    543.57576    2392.3337    2935.9094    -832.5199
Loop time of 0.0879359 on 4 procs for 25 steps with 472 atoms

Minimization stats:
  Stopping criterion = energy tolerance
  Energy initial, next-to-last, final =
  Force two-norm initial, final = 1384 382.867
  Force max component initial, final = 146.586 54.8498
  Final line search alpha, max atom move = 0 0
  Iterations, force evaluations = 25 25

write_dump all custom pysimm.dump.tmp id q x y z vx vy vz
quit
